
  -OEChem-06112015403D

 47 49  0     1  0  0  0  0  0999 V2000
    4.8920    2.2096   -3.8026 C   0  0  0  0  0  0  0  0  0  0  0  0
    4.8429    1.1317   -4.6865 C   0  0  0  0  0  0  0  0  0  0  0  0
    4.0412    2.2448   -2.6977 C   0  0  0  0  0  0  0  0  0  0  0  0
    3.9430    0.0891   -4.4658 C   0  0  0  0  0  0  0  0  0  0  0  0
    3.1413    1.2021   -2.4770 C   0  0  0  0  0  0  0  0  0  0  0  0
    3.0922    0.1243   -3.3610 C   0  0  0  0  0  0  0  0  0  0  0  0
    2.1342   -0.9855   -3.1261 C   0  0  0  0  0  0  0  0  0  0  0  0
   -0.6074   -0.3117   -0.8603 C   0  0  0  0  0  0  0  0  0  0  0  0
   -0.1805   -4.7660   -0.4872 C   0  0  0  0  0  0  0  0  0  0  0  0
   -1.3261   -4.0919   -1.2525 C   0  0  0  0  0  0  0  0  0  0  0  0
    1.4201   -2.8070   -0.1048 C   0  0  0  0  0  0  0  0  0  0  0  0
   -0.4703   -1.6939   -1.4387 C   0  0  2  0  0  0  0  0  0  0  0  0
    0.3363   -3.7144    0.4975 C   0  0  1  0  0  0  0  0  0  0  0  0
   -1.4129   -2.6667   -0.6973 C   0  0  2  0  0  0  0  0  0  0  0  0
    0.9913   -2.1821   -1.4416 C   0  0  1  0  0  0  0  0  0  0  0  0
   -3.0254    2.2652   -1.8100 C   0  0  0  0  0  0  0  0  0  0  0  0
   -1.8719   -3.3681    1.7073 C   0  0  0  0  0  0  0  0  0  0  0  0
   -1.8706    1.6784   -1.0265 C   0  0  0  0  0  0  0  0  0  0  0  0
   -0.8776   -2.8344    0.7177 N   0  3  1  0  0  0  0  0  0  0  0  0
    1.6442   -1.6492   -4.0266 O   0  0  0  0  0  0  0  0  0  0  0  0
    0.1024    0.1309    0.0328 O   0  0  0  0  0  0  0  0  0  0  0  0
    1.8968   -1.1431   -1.7951 O   0  0  0  0  0  0  0  0  0  0  0  0
   -1.6282    0.3438   -1.4827 O   0  0  0  0  0  0  0  0  0  0  0  0
    5.5926    3.0214   -3.9745 H   0  0  0  0  0  0  0  0  0  0  0  0
    5.5053    1.1046   -5.5468 H   0  0  0  0  0  0  0  0  0  0  0  0
    4.0796    3.0838   -2.0092 H   0  0  0  0  0  0  0  0  0  0  0  0
    3.9132   -0.7460   -5.1610 H   0  0  0  0  0  0  0  0  0  0  0  0
    2.4829    1.2402   -1.6129 H   0  0  0  0  0  0  0  0  0  0  0  0
   -0.5672   -5.6376    0.0539 H   0  0  0  0  0  0  0  0  0  0  0  0
    0.6025   -5.1271   -1.1622 H   0  0  0  0  0  0  0  0  0  0  0  0
   -1.1573   -4.1106   -2.3342 H   0  0  0  0  0  0  0  0  0  0  0  0
   -2.2608   -4.6327   -1.0627 H   0  0  0  0  0  0  0  0  0  0  0  0
    1.6865   -2.0167    0.6095 H   0  0  0  0  0  0  0  0  0  0  0  0
    2.3431   -3.3800   -0.2593 H   0  0  0  0  0  0  0  0  0  0  0  0
   -0.8043   -1.5986   -2.4806 H   0  0  0  0  0  0  0  0  0  0  0  0
    0.6565   -4.1332    1.4568 H   0  0  0  0  0  0  0  0  0  0  0  0
   -2.4368   -2.2814   -0.6419 H   0  0  0  0  0  0  0  0  0  0  0  0
    1.0948   -2.9503   -2.2181 H   0  0  0  0  0  0  0  0  0  0  0  0
   -2.7953    2.2980   -2.8786 H   0  0  0  0  0  0  0  0  0  0  0  0
   -3.9335    1.6715   -1.6620 H   0  0  0  0  0  0  0  0  0  0  0  0
   -3.2491    3.2803   -1.4655 H   0  0  0  0  0  0  0  0  0  0  0  0
   -2.2169   -4.3379    1.3441 H   0  0  0  0  0  0  0  0  0  0  0  0
   -1.3658   -3.4666    2.6695 H   0  0  0  0  0  0  0  0  0  0  0  0
   -2.6971   -2.6560    1.7689 H   0  0  0  0  0  0  0  0  0  0  0  0
   -2.1072    1.6484    0.0413 H   0  0  0  0  0  0  0  0  0  0  0  0
   -0.9640    2.2722   -1.1762 H   0  0  0  0  0  0  0  0  0  0  0  0
   -0.5761   -1.9248    1.0911 H   0  0  0  0  0  0  0  0  0  0  0  0
  1  2  2  0  0  0  0
  1  3  1  0  0  0  0
  2  4  1  0  0  0  0
  3  5  2  0  0  0  0
  4  6  2  0  0  0  0
  5  6  1  0  0  0  0
  6  7  1  0  0  0  0
  7 20  2  0  0  0  0
  7 22  1  0  0  0  0
  8 12  1  0  0  0  0
  8 21  2  0  0  0  0
  8 23  1  0  0  0  0
  9 10  1  0  0  0  0
  9 13  1  0  0  0  0
 10 14  1  0  0  0  0
 11 13  1  0  0  0  0
 11 15  1  0  0  0  0
 12 14  1  0  0  0  0
 12 15  1  0  0  0  0
 13 19  1  0  0  0  0
 14 19  1  0  0  0  0
 15 22  1  1  0  0  0
 16 18  1  0  0  0  0
 17 19  1  0  0  0  0
 18 23  1  0  0  0  0
  1 24  1  0  0  0  0
  2 25  1  0  0  0  0
  3 26  1  0  0  0  0
  4 27  1  0  0  0  0
  5 28  1  0  0  0  0
  9 29  1  0  0  0  0
  9 30  1  0  0  0  0
 10 31  1  0  0  0  0
 10 32  1  0  0  0  0
 11 33  1  0  0  0  0
 11 34  1  0  0  0  0
 12 35  1  6  0  0  0
 13 36  1  1  0  0  0
 14 37  1  6  0  0  0
 15 38  1  6  0  0  0
 16 39  1  0  0  0  0
 16 40  1  0  0  0  0
 16 41  1  0  0  0  0
 17 42  1  0  0  0  0
 17 43  1  0  0  0  0
 17 44  1  0  0  0  0
 18 45  1  0  0  0  0
 18 46  1  0  0  0  0
 19 47  1  0  0  0  0
M  CHG  1  19   1
M  END
> <OE_AM1_SCF_ENERGY>
3.8611

$$$$
