
  -OEChem-10162012013D

 21 22  0     0  0  0  0  0  0999 V2000
   -0.4966   -2.0341    0.4940 C   0  0  0  0  0  0  0  0  0  0  0  0
    0.3500   -1.0275    0.0392 C   0  0  0  0  0  0  0  0  0  0  0  0
   -0.0479   -3.3542    0.5448 C   0  0  0  0  0  0  0  0  0  0  0  0
    1.6484   -1.3369   -0.3665 C   0  0  0  0  0  0  0  0  0  0  0  0
    1.7243   -5.0072    0.1848 C   0  0  0  0  0  0  0  0  0  0  0  0
    3.4207   -2.9899   -0.7267 C   0  0  0  0  0  0  0  0  0  0  0  0
    1.2560   -3.6839    0.1403 C   0  0  0  0  0  0  0  0  0  0  0  0
    2.1168   -2.6602   -0.3222 C   0  0  0  0  0  0  0  0  0  0  0  0
    3.0228   -5.3167   -0.2210 C   0  0  0  0  0  0  0  0  0  0  0  0
    3.8693   -4.3100   -0.6758 C   0  0  0  0  0  0  0  0  0  0  0  0
    3.4818   -6.7161   -0.1618 C   0  0  0  0  0  0  0  0  0  0  0  0
    2.6670   -7.6159    0.2654 O   0  5  0  0  0  0  0  0  0  0  0  0
    4.6814   -6.9892   -0.5392 O   0  0  0  0  0  0  0  0  0  0  0  0
    5.1411   -4.5934   -1.0757 O   0  0  0  0  0  0  0  0  0  0  0  0
   -1.5076   -1.7931    0.8095 H   0  0  0  0  0  0  0  0  0  0  0  0
    0.0006    0.0002    0.0000 H   0  0  0  0  0  0  0  0  0  0  0  0
   -0.7272   -4.1246    0.9034 H   0  0  0  0  0  0  0  0  0  0  0  0
    2.2924   -0.5342   -0.7199 H   0  0  0  0  0  0  0  0  0  0  0  0
    1.0705   -5.8025    0.5393 H   0  0  0  0  0  0  0  0  0  0  0  0
    4.0949   -2.2136   -1.0843 H   0  0  0  0  0  0  0  0  0  0  0  0
    5.5907   -3.7825   -1.3603 H   0  0  0  0  0  0  0  0  0  0  0  0
  1  2  1  0  0  0  0
  1  3  2  0  0  0  0
  2  4  2  0  0  0  0
  3  7  1  0  0  0  0
  4  8  1  0  0  0  0
  5  7  1  0  0  0  0
  5  9  2  0  0  0  0
  6  8  1  0  0  0  0
  6 10  2  0  0  0  0
  7  8  2  0  0  0  0
  9 10  1  0  0  0  0
  9 11  1  0  0  0  0
 10 14  1  0  0  0  0
 11 12  1  0  0  0  0
 11 13  2  0  0  0  0
  1 15  1  0  0  0  0
  2 16  1  0  0  0  0
  3 17  1  0  0  0  0
  4 18  1  0  0  0  0
  5 19  1  0  0  0  0
  6 20  1  0  0  0  0
 14 21  1  0  0  0  0
M  CHG  1  12  -1
M  END
> <OE_AM1_SCF_ENERGY>
-107.8691

$$$$
