
  -OEChem-10162012013D

 20 20  0     0  0  0  0  0  0999 V2000
   -0.0082   -2.3676   -4.9536 C   0  0  0  0  0  0  0  0  0  0  0  0
   -0.3396    0.4881   -0.9209 C   0  0  0  0  0  0  0  0  0  0  0  0
   -1.6799   -0.1059   -1.3575 C   0  0  0  0  0  0  0  0  0  0  0  0
    0.6372    0.2135   -2.0602 C   0  0  0  0  0  0  0  0  0  0  0  0
   -1.4494   -0.6928   -2.7462 C   0  0  0  0  0  0  0  0  0  0  0  0
    0.0448   -0.9981   -2.7731 C   0  0  0  0  0  0  0  0  0  0  0  0
    0.5910   -1.1933   -4.1767 C   0  0  0  0  0  0  0  0  0  0  0  0
   -0.3611   -3.3730   -4.2784 O   0  5  0  0  0  0  0  0  0  0  0  0
   -0.0761   -2.1766   -6.2025 O   0  0  0  0  0  0  0  0  0  0  0  0
   -0.4177    1.5603   -0.7140 H   0  0  0  0  0  0  0  0  0  0  0  0
    0.0001    0.0002    0.0001 H   0  0  0  0  0  0  0  0  0  0  0  0
   -1.9816   -0.8924   -0.6562 H   0  0  0  0  0  0  0  0  0  0  0  0
   -2.4752    0.6460   -1.3688 H   0  0  0  0  0  0  0  0  0  0  0  0
    0.6759    1.0810   -2.7306 H   0  0  0  0  0  0  0  0  0  0  0  0
    1.6518    0.0271   -1.6944 H   0  0  0  0  0  0  0  0  0  0  0  0
   -2.0608   -1.5833   -2.9215 H   0  0  0  0  0  0  0  0  0  0  0  0
   -1.7106    0.0501   -3.5100 H   0  0  0  0  0  0  0  0  0  0  0  0
    0.2424   -1.9013   -2.1809 H   0  0  0  0  0  0  0  0  0  0  0  0
    1.6748   -1.3434   -4.1181 H   0  0  0  0  0  0  0  0  0  0  0  0
    0.4169   -0.2795   -4.7558 H   0  0  0  0  0  0  0  0  0  0  0  0
  1  7  1  0  0  0  0
  1  8  1  0  0  0  0
  1  9  2  0  0  0  0
  2  3  1  0  0  0  0
  2  4  1  0  0  0  0
  3  5  1  0  0  0  0
  4  6  1  0  0  0  0
  5  6  1  0  0  0  0
  6  7  1  0  0  0  0
  2 10  1  0  0  0  0
  2 11  1  0  0  0  0
  3 12  1  0  0  0  0
  3 13  1  0  0  0  0
  4 14  1  0  0  0  0
  4 15  1  0  0  0  0
  5 16  1  0  0  0  0
  5 17  1  0  0  0  0
  6 18  1  0  0  0  0
  7 19  1  0  0  0  0
  7 20  1  0  0  0  0
M  CHG  1   8  -1
M  END
> <OE_AM1_SCF_ENERGY>
-138.5229

$$$$
